LTspice 24.1.4 for Windows
Circuit: G:\My Drive\CV_Projects_Porfolio_2025\STM32_LoRa_Sensor_ADC\Simulation\LTspice_Sallen_Key.net
Start Time: Thu May 29 21:07:07 2025
solver = Normal
Maximum thread count: 4
tnom = 27
temp = 27
method = trap
Direct Newton iteration for .op point succeeded.
Total elapsed time: 0.645 seconds.

Files loaded:
G:\My Drive\CV_Projects_Porfolio_2025\STM32_LoRa_Sensor_ADC\Simulation\LTspice_Sallen_Key.net
C:\Users\caoil\AppData\Local\LTspice\lib\sub\UniversalOpAmp2.lib

